*HEADING
cubit(M2BS2/OIST_2015/OCNC_2017/Audrey/Mesh_Astro/astrocyte.inp): 07/01/2017: 16
version: 14.1
**
********************************** P A R T S **********************************
*PART, NAME=Part-Default
**
********************************** N O D E S **********************************
*NODE, NSET=ALLNODES
       1,    1.000000e-01,    0.000000e+00,   -5.000000e-01
       2,    9.555728e-02,   -2.947552e-02,   -5.000000e-01
       3,    8.262388e-02,   -5.633201e-02,   -5.000000e-01
       4,    6.234898e-02,   -7.818315e-02,   -5.000000e-01
       5,    3.653410e-02,   -9.308737e-02,   -5.000000e-01
       6,    7.473009e-03,   -9.972038e-02,   -5.000000e-01
       7,   -2.225209e-02,   -9.749279e-02,   -5.000000e-01
       8,   -5.000000e-02,   -8.660254e-02,   -5.000000e-01
       9,   -7.330519e-02,   -6.801727e-02,   -5.000000e-01
      10,   -9.009689e-02,   -4.338837e-02,   -5.000000e-01
      11,   -9.888308e-02,   -1.490423e-02,   -5.000000e-01
      12,   -9.888308e-02,    1.490423e-02,   -5.000000e-01
      13,   -9.009689e-02,    4.338837e-02,   -5.000000e-01
      14,   -7.330519e-02,    6.801727e-02,   -5.000000e-01
      15,   -5.000000e-02,    8.660254e-02,   -5.000000e-01
      16,   -2.225209e-02,    9.749279e-02,   -5.000000e-01
      17,    7.473009e-03,    9.972038e-02,   -5.000000e-01
      18,    3.653410e-02,    9.308737e-02,   -5.000000e-01
      19,    6.234898e-02,    7.818315e-02,   -5.000000e-01
      20,    8.262388e-02,    5.633201e-02,   -5.000000e-01
** ... 2438 like lines cut
**
********************************** E L E M E N T S ****************************
*ELEMENT, TYPE=C3D4, ELSET=EB4
       1,    1134,     885,     823,     836
       2,    1135,    1136,    1137,    1138
       3,    1135,    1139,    1136,    1138
       4,    1135,    1140,    1141,    1142
       5,    1135,    1143,    1141,    1140
       6,     837,     886,     825,     836
       7,    1144,    1142,    1139,    1145
       8,    1135,    1146,    1141,    1143
       9,    1135,    1147,    1136,    1139
      10,    1135,    1139,    1146,    1147
      11,    1148,    1149,    1141,    1145
      12,    1148,    1150,    1151,    1152
      13,     835,    1134,    1131,     885
      14,    1153,    1154,    1155,    1156
      15,    1157,     890,    1158,    1133
      16,    1159,    1160,    1161,    1153
      17,    1153,    1162,    1160,    1161
      18,    1153,    1163,    1154,    1156
      19,    1164,    1165,    1159,    1153
      20,     837,    1129,    1166,     886
** ... 11325 like lines cut
**
********************************** P R O P E R T I E S ************************
*SOLID SECTION, ELSET=EB4, MATERIAL=Default-Steel
**
*END PART
**
**
**
********************************** E N D   P A R T S **********************************
**
**
********************************** A S S E M B L Y ************************************
**
*ASSEMBLY, NAME=ASSEMBLY1
**
*INSTANCE, NAME=Part-Default_1, PART=Part-Default
*END INSTANCE
**
*END ASSEMBLY
**
**
**
*MATERIAL, NAME = Default-Steel
*ELASTIC, TYPE=ISOTROPIC
2.068000e+05, 2.900000e-01
*DENSITY
7.000000e-06
*CONDUCTIVITY,TYPE=ISO
4.500000e-02
*SPECIFIC HEAT
5.000000e+02
**
**
************************************** H I S T O R Y *************************************
**
*PREPRINT
**
**************************************** S T E P 1 ***************************************
*STEP,INC=100,NAME=Default Set
**
*STATIC
1, 1, 1e-05, 1
**
**
**
**
*END STEP
