*HEADING
cubit(op/VALIDATION/validation/meshes/brick_40_4_4_1440tets.inp): 02/24/2011: 10
**
********************************** P A R T S **********************************
*PART, NAME=PART-DEFAULT
**
********************************** N O D E S **********************************
*NODE, NSET=ALLNODES
     199,   2.000000e+01,  -2.000000e+00,   2.000000e+00
     200,   2.000000e+01,   2.000000e+00,   2.000000e+00
     201,   2.000000e+01,   0.000000e+00,   2.000000e+00
     202,  -2.000000e+01,   2.000000e+00,   2.000000e+00
     203,   1.833333e+01,   2.000000e+00,   2.000000e+00
     204,   1.666667e+01,   2.000000e+00,   2.000000e+00
     205,   1.500000e+01,   2.000000e+00,   2.000000e+00
     206,   1.333333e+01,   2.000000e+00,   2.000000e+00
     207,   1.166667e+01,   2.000000e+00,   2.000000e+00
     208,   1.000000e+01,   2.000000e+00,   2.000000e+00
     209,   8.333333e+00,   2.000000e+00,   2.000000e+00
     210,   6.666667e+00,   2.000000e+00,   2.000000e+00
     211,   5.000000e+00,   2.000000e+00,   2.000000e+00
     212,   3.333333e+00,   2.000000e+00,   2.000000e+00
     213,   1.666667e+00,   2.000000e+00,   2.000000e+00
     214,   0.000000e+00,   2.000000e+00,   2.000000e+00
     215,  -1.666667e+00,   2.000000e+00,   2.000000e+00
     216,  -3.333333e+00,   2.000000e+00,   2.000000e+00
     217,  -5.000000e+00,   2.000000e+00,   2.000000e+00
     218,  -6.666667e+00,   2.000000e+00,   2.000000e+00
** ... 388 like lines cut
**
********************************** E L E M E N T S ****************************
*ELEMENT, TYPE=C3D4, ELSET=EB1
     520,     347,     497,     390,     498
     521,     390,     498,     497,     499
     522,     390,     345,     389,     499
     523,     498,     499,     500,     501
     524,     468,     499,     470,     501
     525,     469,     470,     499,     502
     526,     497,     499,     502,     503
     527,     368,     504,     505,     506
     528,     320,     418,     417,     505
     529,     419,     505,     418,     507
     530,     504,     507,     506,     508
     531,     368,     418,     320,     505
     532,     368,     504,     418,     505
     533,     507,     510,     509,     511
     534,     467,     471,     472,     512
     535,     273,     419,     228,     509
     536,     272,     509,     227,     510
     537,     418,     393,     442,     594
     538,     369,     324,     394,     504
     539,     265,     218,     484,     485
** ... 1380 like lines cut
**
********************************** P R O P E R T I E S ************************
*SOLID SECTION, ELSET=EB1, MATERIAL=Default-Steel
**
*END PART
**
**
**
********************************** E N D   P A R T S **********************************
**
**
********************************** A S S E M B L Y ************************************
**
*ASSEMBLY, NAME=ASSEMBLY1
**
*INSTANCE, NAME=PART-DEFAULT_1, PART=PART-DEFAULT
*END INSTANCE
**
*END ASSEMBLY
**
**
**
*MATERIAL, NAME = Default-Steel
*ELASTIC, TYPE=ISOTROPIC
2.068000e+05, 2.900000e-01
*DENSITY
7.000000e-06
*CONDUCTIVITY,TYPE=ISO
4.500000e-02
*SPECIFIC HEAT
5.000000e+02
**
**
************************************** H I S T O R Y *************************************
**
*PREPRINT
**
**************************************** S T E P 1 ***************************************
*STEP,NLGEOM,INC=100,NAME=Default Set
*STATIC
1., 1., 1e-05, 1.
*END STEP
