*HEADING
cubit(/Users/wchen/Downloads/2comps.inp): 10/08/2020: 10:26:14
version: 14.1
**
********************************** P A R T S **********************************
*PART, NAME=Part-Default
**
********************************** N O D E S **********************************
*NODE, NSET=ALLNODES
      10,    0.000000e+00,   -5.000000e+00,    5.000000e+00
      11,    0.000000e+00,    5.000000e+00,    5.000000e+00
      12,    1.000000e+01,   -5.000000e+00,    5.000000e+00
      13,    1.000000e+01,    5.000000e+00,    5.000000e+00
      14,    0.000000e+00,    5.000000e+00,   -5.000000e+00
      15,    0.000000e+00,   -5.000000e+00,   -5.000000e+00
      16,    1.000000e+01,    5.000000e+00,   -5.000000e+00
      17,    1.000000e+01,   -5.000000e+00,   -5.000000e+00
      18,    5.203109e+00,   -5.007881e-01,   -2.197763e-01
      19,   -1.000000e+01,    5.000000e+00,    5.000000e+00
      20,   -1.000000e+01,   -5.000000e+00,    5.000000e+00
      21,   -1.000000e+01,   -5.000000e+00,   -5.000000e+00
      22,   -1.000000e+01,    5.000000e+00,   -5.000000e+00
      23,   -4.669427e+00,    1.131701e-01,    3.619334e-01
**
********************************** E L E M E N T S ****************************
*ELEMENT, TYPE=C3D4, ELSET=EB1
      13,      14,      15,      18,      11
      14,      13,      12,      18,      16
      15,      16,      15,      18,      14
      16,      11,      12,      18,      13
      17,      16,      12,      18,      17
      18,      10,      12,      18,      11
      19,      16,      18,      15,      17
      20,      15,      10,      17,      18
      21,      10,      18,      15,      11
      22,      11,      14,      13,      18
      23,      18,      14,      13,      16
      24,      17,      10,      12,      18
*ELEMENT, TYPE=C3D4, ELSET=EB2
      25,      19,      20,      23,      10
      26,      20,      23,      10,      15
      27,      22,      14,      23,      21
      28,      15,      14,      23,      11
      29,      23,      22,      11,      14
      30,      23,      11,      22,      19
      31,      22,      23,      19,      21
      32,      21,      23,      20,      15
      33,      19,      21,      23,      20
      34,      21,      14,      23,      15
      35,      10,      23,      11,      15
      36,      19,      10,      23,      11
**
********************************** P R O P E R T I E S ************************
*SOLID SECTION, ELSET=EB1, MATERIAL=Default-Steel
*SOLID SECTION, ELSET=EB2, MATERIAL=Default-Steel
**
*END PART
**
**
**
********************************** E N D   P A R T S **********************************
**
**
********************************** A S S E M B L Y ************************************
**
*ASSEMBLY, NAME=ASSEMBLY1
**
*INSTANCE, NAME=Part-Default_1, PART=Part-Default
*END INSTANCE
**
*END ASSEMBLY
**
**
**
*MATERIAL, NAME = Default-Steel
*ELASTIC, TYPE=ISOTROPIC
2.068000e+05, 2.900000e-01
*DENSITY
7.000000e-06
*CONDUCTIVITY,TYPE=ISO
4.500000e-02
*SPECIFIC HEAT
5.000000e+02
**
**
************************************** H I S T O R Y *************************************
**
*PREPRINT
**
**************************************** S T E P 1 ***************************************
*STEP,INC=100,NAME=Default Set
**
*STATIC
1, 1, 1e-05, 1
**
**
**
**
*END STEP
