*HEADING
cubit(/Users/wchen/Downloads/comp1.inp): 10/08/2020: 10:23:15
version: 14.1
**
********************************** P A R T S **********************************
*PART, NAME=Part-Default
**
********************************** N O D E S **********************************
*NODE, NSET=ALLNODES
       1,    0.000000e+00,   -5.000000e+00,    5.000000e+00
       2,    0.000000e+00,    5.000000e+00,    5.000000e+00
       3,   -1.000000e+01,    5.000000e+00,    5.000000e+00
       4,   -1.000000e+01,   -5.000000e+00,    5.000000e+00
       5,    0.000000e+00,    5.000000e+00,   -5.000000e+00
       6,    0.000000e+00,   -5.000000e+00,   -5.000000e+00
       7,   -1.000000e+01,   -5.000000e+00,   -5.000000e+00
       8,   -1.000000e+01,    5.000000e+00,   -5.000000e+00
       9,   -5.335602e+00,   -3.716067e-01,    2.892849e-02
**
********************************** E L E M E N T S ****************************
*ELEMENT, TYPE=C3D4, ELSET=EB1
       1,       6,       4,       9,       7
       2,       2,       9,       1,       3
       3,       9,       7,       8,       5
       4,       5,       8,       9,       2
       5,       5,       2,       9,       1
       6,       3,       7,       8,       9
       7,       7,       6,       5,       9
       8,       7,       9,       3,       4
       9,       8,       9,       2,       3
      10,       1,       4,       9,       6
      11,       1,       9,       4,       3
      12,       9,       6,       5,       1
**
********************************** P R O P E R T I E S ************************
*SOLID SECTION, ELSET=EB1, MATERIAL=Default-Steel
**
*END PART
**
**
**
********************************** E N D   P A R T S **********************************
**
**
********************************** A S S E M B L Y ************************************
**
*ASSEMBLY, NAME=ASSEMBLY1
**
*INSTANCE, NAME=Part-Default_1, PART=Part-Default
*END INSTANCE
**
*END ASSEMBLY
**
**
**
*MATERIAL, NAME = Default-Steel
*ELASTIC, TYPE=ISOTROPIC
2.068000e+05, 2.900000e-01
*DENSITY
7.000000e-06
*CONDUCTIVITY,TYPE=ISO
4.500000e-02
*SPECIFIC HEAT
5.000000e+02
**
**
************************************** H I S T O R Y *************************************
**
*PREPRINT
**
**************************************** S T E P 1 ***************************************
*STEP,INC=100,NAME=Default Set
**
*STATIC
1, 1, 1e-05, 1
**
**
**
**
*END STEP
