*HEADING
cubit(st/validation/validation_rd/meshes/sphere_rad1_37tets.inp): 11/28/2018: 09
version: 16.5.2
**
********************************** P A R T S **********************************
*PART, NAME=Part-Default
**
********************************** N O D E S **********************************
*NODE, NSET=ALLNODES
       1,   -6.123234e-17,   -7.498799e-33,   -1.000000e+00
       2,   -6.123234e-17,   -7.498799e-33,    1.000000e+00
       3,   -8.660254e-01,   -1.060575e-16,   -5.000000e-01
       4,   -8.660254e-01,   -1.060575e-16,    5.000000e-01
       5,   -6.571833e-01,   -7.537308e-01,   -1.598721e-14
       6,   -6.571833e-01,    7.537308e-01,   -1.598721e-14
       7,   -3.262969e-02,    6.885969e-01,   -7.244098e-01
       8,   -1.409497e-01,    6.399677e-01,    7.553638e-01
       9,   -6.825207e-02,   -6.755801e-01,    7.341207e-01
      10,   -1.346893e-01,   -6.467650e-01,   -7.507022e-01
      11,    3.033271e-01,   -9.479972e-01,   -9.640526e-02
      12,    2.372679e-01,    9.640289e-01,    1.198012e-01
      13,    7.090119e-01,    5.310266e-01,   -4.640182e-01
      14,    6.346004e-01,    3.406606e-01,    6.937094e-01
      15,    6.216752e-01,   -4.886075e-01,    6.121950e-01
      16,    6.591895e-01,   -3.129182e-01,   -6.837773e-01
      17,    9.932044e-01,   -1.162751e-01,    5.017456e-03
      18,   -1.168877e-03,   -3.352070e-02,    1.879065e-01
      19,   -5.180868e-02,   -2.891802e-02,   -3.260549e-01
**
********************************** E L E M E N T S ****************************
*ELEMENT, TYPE=C3D4, ELSET=EB1
       1,      11,      18,      17,      19
       2,       5,      18,      11,      19
       3,      13,      17,      18,      19
       4,      12,      13,      18,      19
       5,       6,      12,      18,      19
       6,       5,       3,      18,      19
       7,       3,       6,      18,      19
       8,      11,      15,      17,      18
       9,      14,      13,      17,      18
      10,      14,      17,      15,      18
      11,       2,      14,       9,      18
      12,       2,       4,       8,      18
      13,       2,       8,      14,      18
      14,       8,      12,      14,      18
      15,      11,      17,      16,      19
      16,       9,      14,      15,      18
      17,       5,      11,      10,      19
      18,      13,      16,      17,      19
      19,      14,      12,      13,      18
      20,       9,      15,      11,      18
** ... 17 like lines cut
**
********************************** P R O P E R T I E S ************************
*SOLID SECTION, ELSET=EB1, MATERIAL=Default-Steel
**
*END PART
**
**
**
********************************** E N D   P A R T S **********************************
**
**
********************************** A S S E M B L Y ************************************
**
*ASSEMBLY, NAME=ASSEMBLY1
**
*INSTANCE, NAME=Part-Default_1, PART=Part-Default
*END INSTANCE
**
*END ASSEMBLY
**
**
**
*MATERIAL, NAME = Default-Steel
*ELASTIC, TYPE=ISOTROPIC
2.068000e+05, 2.900000e-01
*DENSITY
7.000000e-06
*CONDUCTIVITY,TYPE=ISO
4.500000e-02
*SPECIFIC HEAT
5.000000e+02
**
**
************************************** H I S T O R Y *************************************
**
*PREPRINT
**
**************************************** S T E P 1 ***************************************
*STEP,INC=100,NAME=Default Set
**
*STATIC
1, 1, 1e-05, 1
**
**
**
**
*END STEP
