*HEADING
cubit(sktop/VALIDATION/validation/meshes/brick_40_4_4_STEPS.inp): 02/24/2011: 10
**
********************************** P A R T S **********************************
*PART, NAME=PART-DEFAULT
**
********************************** N O D E S **********************************
*NODE, NSET=ALLNODES
       1,   2.000000e+01,  -2.000000e+00,   2.000000e+00
       2,   2.000000e+01,   2.000000e+00,   2.000000e+00
       3,   2.000000e+01,   0.000000e+00,   2.000000e+00
       4,  -2.000000e+01,   2.000000e+00,   2.000000e+00
       5,   1.809524e+01,   2.000000e+00,   2.000000e+00
       6,   1.619048e+01,   2.000000e+00,   2.000000e+00
       7,   1.428571e+01,   2.000000e+00,   2.000000e+00
       8,   1.238095e+01,   2.000000e+00,   2.000000e+00
       9,   1.047619e+01,   2.000000e+00,   2.000000e+00
      10,   8.571429e+00,   2.000000e+00,   2.000000e+00
      11,   6.666667e+00,   2.000000e+00,   2.000000e+00
      12,   4.761905e+00,   2.000000e+00,   2.000000e+00
      13,   2.857143e+00,   2.000000e+00,   2.000000e+00
      14,   9.523810e-01,   2.000000e+00,   2.000000e+00
      15,  -9.523810e-01,   2.000000e+00,   2.000000e+00
      16,  -2.857143e+00,   2.000000e+00,   2.000000e+00
      17,  -4.761905e+00,   2.000000e+00,   2.000000e+00
      18,  -6.666667e+00,   2.000000e+00,   2.000000e+00
      19,  -8.571429e+00,   2.000000e+00,   2.000000e+00
      20,  -1.047619e+01,   2.000000e+00,   2.000000e+00
** ... 178 like lines cut
**
********************************** E L E M E N T S ****************************
*ELEMENT, TYPE=C3D4, ELSET=EB1
       1,     175,     176,     177,     178
       2,      68,     175,     112,     177
       3,       5,     173,     154,     178
       4,     154,     173,     175,     178
       5,      68,     174,      66,     175
       6,      66,     174,     154,     175
       7,      89,     151,     130,     179
       8,      89,      88,     130,     151
       9,     151,     179,     131,     180
      10,      27,     151,     131,     180
      11,      91,     153,      69,     179
      12,      89,      69,     131,     179
      13,     130,     181,     179,     182
      14,     155,     180,     181,     182
      15,      22,      64,      23,     156
      16,     130,     155,      92,     181
      17,     130,      93,      92,     155
      18,      90,     152,     153,     181
      19,      91,      90,     153,     181
      20,     151,     179,     180,     182
** ... 499 like lines cut
**
********************************** P R O P E R T I E S ************************
*SOLID SECTION, ELSET=EB1, MATERIAL=Default-Steel
**
*END PART
**
**
**
********************************** E N D   P A R T S **********************************
**
**
********************************** A S S E M B L Y ************************************
**
*ASSEMBLY, NAME=ASSEMBLY1
**
*INSTANCE, NAME=PART-DEFAULT_1, PART=PART-DEFAULT
*END INSTANCE
**
*END ASSEMBLY
**
**
**
*MATERIAL, NAME = Default-Steel
*ELASTIC, TYPE=ISOTROPIC
2.068000e+05, 2.900000e-01
*DENSITY
7.000000e-06
*CONDUCTIVITY,TYPE=ISO
4.500000e-02
*SPECIFIC HEAT
5.000000e+02
**
**
************************************** H I S T O R Y *************************************
**
*PREPRINT
**
**************************************** S T E P 1 ***************************************
*STEP,NLGEOM,INC=100,NAME=Default Set
*STATIC
1., 1., 1e-05, 1.
*END STEP
