*HEADING
cubit(top/VALIDATION/validation/meshes/brick_40_4_4_841tets.inp): 02/24/2011: 11
**
********************************** P A R T S **********************************
*PART, NAME=PART-DEFAULT
**
********************************** N O D E S **********************************
*NODE, NSET=ALLNODES
    1836,   2.000000e+01,  -2.000000e+00,   2.000000e+00
    1837,   2.000000e+01,   2.000000e+00,   2.000000e+00
    1838,   2.000000e+01,  -6.666667e-01,   2.000000e+00
    1839,   2.000000e+01,   6.666667e-01,   2.000000e+00
    1840,   0.000000e+00,   2.000000e+00,   2.000000e+00
    1841,   1.846154e+01,   2.000000e+00,   2.000000e+00
    1842,   1.692308e+01,   2.000000e+00,   2.000000e+00
    1843,   1.538462e+01,   2.000000e+00,   2.000000e+00
    1844,   1.384615e+01,   2.000000e+00,   2.000000e+00
    1845,   1.230769e+01,   2.000000e+00,   2.000000e+00
    1846,   1.076923e+01,   2.000000e+00,   2.000000e+00
    1847,   9.230769e+00,   2.000000e+00,   2.000000e+00
    1848,   7.692308e+00,   2.000000e+00,   2.000000e+00
    1849,   6.153846e+00,   2.000000e+00,   2.000000e+00
    1850,   4.615385e+00,   2.000000e+00,   2.000000e+00
    1851,   3.076923e+00,   2.000000e+00,   2.000000e+00
    1852,   1.538462e+00,   2.000000e+00,   2.000000e+00
    1853,   0.000000e+00,  -2.000000e+00,   2.000000e+00
    1854,   0.000000e+00,   6.666667e-01,   2.000000e+00
    1855,   0.000000e+00,  -6.666667e-01,   2.000000e+00
** ... 461 like lines cut
**
********************************** E L E M E N T S ****************************
*ELEMENT, TYPE=C3D4, ELSET=EB2
    6978,    1887,    1873,    1888,    2016
    6979,    1888,    2016,    1873,    2017
    6980,    2003,    2002,    2017,    2018
    6981,    1872,    2017,    2019,    2020
    6982,    1888,    2017,    1872,    2020
    6983,    1845,    2003,    2002,    2017
    6984,    2002,    2019,    2017,    2021
    6985,    1872,    1845,    2002,    2017
    6986,    1900,    1956,    1955,    2022
    6987,    1956,    2022,    2023,    2024
    6988,    1928,    1900,    1927,    2022
    6989,    1979,    1980,    2025,    2026
    6990,    1910,    1983,    1896,    2025
    6991,    1936,    2025,    1908,    2027
    6992,    1910,    1979,    1983,    2025
    6993,    1995,    2019,    2021,    2028
    6994,    1889,    1872,    2019,    2020
    6995,    1844,    2002,    2001,    2019
    6996,    1872,    2002,    1844,    2019
    6997,    2023,    2024,    2029,    2030
** ... 825 like lines cut
*ELEMENT, TYPE=C3D4, ELSET=EB3
    7823,    2170,    2186,    2248,    2249
    7824,    2170,    2249,    2248,    2250
    7825,    2143,    2171,    2197,    2248
    7826,    2196,    2250,    2248,    2251
    7827,    2143,    2197,    2196,    2248
    7828,    2134,    2252,    2119,    2253
    7829,    2133,    2119,    2134,    2252
    7830,    2241,    2253,    2254,    2240
    7831,    2253,    2254,    2255,    2256
    7832,    2134,    2253,    2118,    2256
    7833,    2240,    2091,    2241,    2253
    7834,    2240,    2253,    2254,    2255
    7835,    2118,    2091,    2240,    2253
    7836,    2234,    2257,    2237,    2258
    7837,    2189,    2257,    2188,    2259
    7838,    2164,    2163,    2188,    2234
    7839,    2164,    2234,    2188,    2257
    7840,    2164,    2189,    2235,    2257
    7841,    2233,    2255,    2260,    2261
    7842,    2118,    2255,    2135,    2256
** ... 821 like lines cut
**
********************************** P R O P E R T I E S ************************
*SOLID SECTION, ELSET=EB2, MATERIAL=Default-Steel
*SOLID SECTION, ELSET=EB3, MATERIAL=Default-Steel
**
*END PART
**
**
**
********************************** E N D   P A R T S **********************************
**
**
********************************** A S S E M B L Y ************************************
**
*ASSEMBLY, NAME=ASSEMBLY1
**
*INSTANCE, NAME=PART-DEFAULT_1, PART=PART-DEFAULT
*END INSTANCE
**
*END ASSEMBLY
**
**
**
*MATERIAL, NAME = Default-Steel
*ELASTIC, TYPE=ISOTROPIC
2.068000e+05, 2.900000e-01
*DENSITY
7.000000e-06
*CONDUCTIVITY,TYPE=ISO
4.500000e-02
*SPECIFIC HEAT
5.000000e+02
**
**
************************************** H I S T O R Y *************************************
**
*PREPRINT
**
**************************************** S T E P 1 ***************************************
*STEP,NLGEOM,INC=100,NAME=Default Set
*STATIC
1., 1., 1e-05, 1.
*END STEP
