*HEADING
cubit(LIDATION/REACTION_DIFFUSION/meshes/cube_1_1_1_234tets.inp): 02/02/2011: 14
**
********************************** P A R T S **********************************
*PART, NAME=PART-DEFAULT
**
********************************** N O D E S **********************************
*NODE, NSET=ALLNODES
   12806,   5.000000e-01,  -5.000000e-01,   5.000000e-01
   12807,   5.000000e-01,   5.000000e-01,   5.000000e-01
   12808,   5.000000e-01,  -1.666667e-01,   5.000000e-01
   12809,   5.000000e-01,   1.666667e-01,   5.000000e-01
   12810,  -5.000000e-01,   5.000000e-01,   5.000000e-01
   12811,   1.666667e-01,   5.000000e-01,   5.000000e-01
   12812,  -1.666667e-01,   5.000000e-01,   5.000000e-01
   12813,  -5.000000e-01,  -5.000000e-01,   5.000000e-01
   12814,  -5.000000e-01,   1.666667e-01,   5.000000e-01
   12815,  -5.000000e-01,  -1.666667e-01,   5.000000e-01
   12816,  -1.666667e-01,  -5.000000e-01,   5.000000e-01
   12817,   1.666667e-01,  -5.000000e-01,   5.000000e-01
   12818,   1.601018e-01,  -2.126765e-02,   5.000000e-01
   12819,  -8.333798e-03,   2.660949e-01,   5.000000e-01
   12820,  -2.049694e-01,   5.137123e-02,   5.000000e-01
   12821,  -1.089735e-01,  -2.273126e-01,   5.000000e-01
   12822,   2.636869e-01,   2.822988e-01,   5.000000e-01
   12823,  -2.759940e-01,   2.968266e-01,   5.000000e-01
   12824,   5.000000e-01,   5.000000e-01,  -5.000000e-01
   12825,   5.000000e-01,  -5.000000e-01,  -5.000000e-01
** ... 62 like lines cut
**
********************************** E L E M E N T S ****************************
*ELEMENT, TYPE=C3D4, ELSET=EB2
   63817,   12820,   12874,   12821,   12875
   63818,   12819,   12876,   12874,   12877
   63819,   12869,   12878,   12879,   12880
   63820,   12878,   12880,   12881,   12882
   63821,   12818,   12874,   12878,   12881
   63822,   12818,   12876,   12871,   12878
   63823,   12870,   12879,   12878,   12883
   63824,   12870,   12878,   12876,   12883
   63825,   12864,   12883,   12877,   12884
   63826,   12839,   12833,   12838,   12885
   63827,   12862,   12883,   12864,   12886
   63828,   12853,   12864,   12884,   12886
   63829,   12853,   12867,   12864,   12886
   63830,   12858,   12884,   12885,   12886
   63831,   12839,   12885,   12884,   12886
   63832,   12834,   12867,   12831,   12885
   63833,   12858,   12884,   12855,   12885
   63834,   12839,   12838,   12884,   12885
   63835,   12831,   12867,   12858,   12885
   63836,   12834,   12885,   12839,   12886
** ... 214 like lines cut
**
********************************** P R O P E R T I E S ************************
*SOLID SECTION, ELSET=EB2, MATERIAL=Default-Steel
**
*END PART
**
**
**
********************************** E N D   P A R T S **********************************
**
**
********************************** A S S E M B L Y ************************************
**
*ASSEMBLY, NAME=ASSEMBLY1
**
*INSTANCE, NAME=PART-DEFAULT_1, PART=PART-DEFAULT
*END INSTANCE
**
*END ASSEMBLY
**
**
**
*MATERIAL, NAME = Default-Steel
*ELASTIC, TYPE=ISOTROPIC
2.068000e+05, 2.900000e-01
*DENSITY
7.000000e-06
*CONDUCTIVITY,TYPE=ISO
4.500000e-02
*SPECIFIC HEAT
5.000000e+02
**
**
************************************** H I S T O R Y *************************************
**
*PREPRINT
**
**************************************** S T E P 1 ***************************************
*STEP,NLGEOM,INC=100,NAME=Default Set
*STATIC
1., 1., 1e-05, 1.
*END STEP
