*HEADING
cubit(ub/STEPS/test/unit_test/directonal_dcst_test/mesh_tet.inp): 07/18/2014: 11
version: 14.0
**
********************************** P A R T S **********************************
*PART, NAME=Part-Default
**
********************************** N O D E S **********************************
*NODE, NSET=ALLNODES
       1,    5.000000e+00,   -5.000000e+00,    5.000000e+00
       2,    5.000000e+00,    5.000000e+00,    5.000000e+00
       3,    5.000000e+00,   -1.666667e+00,    5.000000e+00
       4,    5.000000e+00,    1.666667e+00,    5.000000e+00
       5,   -5.000000e+00,    5.000000e+00,    5.000000e+00
       6,    1.666667e+00,    5.000000e+00,    5.000000e+00
       7,   -1.666667e+00,    5.000000e+00,    5.000000e+00
       8,   -5.000000e+00,   -5.000000e+00,    5.000000e+00
       9,   -5.000000e+00,    1.666667e+00,    5.000000e+00
      10,   -5.000000e+00,   -1.666667e+00,    5.000000e+00
      11,   -1.666667e+00,   -5.000000e+00,    5.000000e+00
      12,    1.666667e+00,   -5.000000e+00,    5.000000e+00
      13,    1.598666e+00,    2.203075e-01,    5.000000e+00
      14,   -1.081938e+00,    2.295188e+00,    5.000000e+00
      15,   -2.049839e+00,   -5.040809e-01,    5.000000e+00
      16,   -9.221725e-02,   -2.668473e+00,    5.000000e+00
      17,    2.634623e+00,   -2.822966e+00,    5.000000e+00
      18,   -2.761745e+00,   -2.967844e+00,    5.000000e+00
      19,    5.000000e+00,    5.000000e+00,   -5.000000e+00
      20,    5.000000e+00,   -5.000000e+00,   -5.000000e+00
** ... 143 like lines cut
**
********************************** E L E M E N T S ****************************
*ELEMENT, TYPE=C3D4, ELSET=EB1
       1,      77,      42,      43,      78
       2,      47,      77,      42,      43
       3,      79,      41,      80,      81
       4,      81,      41,      80,      42
       5,      41,      78,      81,      79
       6,      82,      78,      79,      81
       7,      83,      77,      43,      78
       8,      84,      14,      82,      13
       9,      84,      64,       6,      65
      10,      48,      83,      43,      44
      11,      83,      43,      44,      78
      12,      22,      20,      74,      47
      13,      29,      34,      62,      85
      14,      83,      82,      78,      79
      15,      81,      86,      87,      88
      16,      77,      47,      74,      40
      17,      89,      31,      88,      86
      18,      77,      32,      31,      24
      19,      33,      86,      34,      85
      20,      79,      54,      53,      58
** ... 249 like lines cut
*ELEMENT, TYPE=C3D4, ELSET=EB2
     270,     149,     150,     151,     152
     271,     150,     153,     149,     151
     272,     154,     149,     155,     156
     273,     149,     154,     126,     157
     274,     149,     157,     126,     125
     275,     149,     123,     158,     124
     276,     159,     156,     149,     160
     277,     160,     159,     152,     149
     278,     149,     124,     160,     125
     279,     151,     153,     136,     135
     280,     151,     133,     159,     134
     281,     151,     161,     156,     159
     282,     151,     134,     159,     162
     283,     150,     155,     149,     153
     284,     151,     153,     162,     150
     285,      21,     163,     162,      70
     286,     163,     150,      74,     158
     287,     163,     128,     158,      74
     288,     163,     162,     152,     117
     289,     163,     158,     116,     152
** ... 246 like lines cut
**
********************************** P R O P E R T I E S ************************
*SOLID SECTION, ELSET=EB1, MATERIAL=Default-Steel
*SOLID SECTION, ELSET=EB2, MATERIAL=Default-Steel
**
*END PART
**
**
**
********************************** E N D   P A R T S **********************************
**
**
********************************** A S S E M B L Y ************************************
**
*ASSEMBLY, NAME=ASSEMBLY1
**
*INSTANCE, NAME=Part-Default_1, PART=Part-Default
*END INSTANCE
**
*END ASSEMBLY
**
**
**
*MATERIAL, NAME = Default-Steel
*ELASTIC, TYPE=ISOTROPIC
2.068000e+05, 2.900000e-01
*DENSITY
7.000000e-06
*CONDUCTIVITY,TYPE=ISO
4.500000e-02
*SPECIFIC HEAT
5.000000e+02
**
**
************************************** H I S T O R Y *************************************
**
*PREPRINT
**
**************************************** S T E P 1 ***************************************
*STEP,INC=100,NAME=Default Set
**
*STATIC
1, 1, 1e-05, 1
**
**
**
**
*END STEP
