*HEADING
cubit(ub/STEPS/test/unit_test/directonal_dcst_test/mesh_tri.inp): 07/18/2014: 11
version: 14.0
**
********************************** P A R T S **********************************
*PART, NAME=Part-Default
**
********************************** N O D E S **********************************
*NODE, NSET=ALLNODES
       1,    5.000000e+00,   -5.000000e+00,    5.000000e+00
       2,    5.000000e+00,    5.000000e+00,    5.000000e+00
       3,    5.000000e+00,   -1.666667e+00,    5.000000e+00
       4,    5.000000e+00,    1.666667e+00,    5.000000e+00
       5,   -5.000000e+00,    5.000000e+00,    5.000000e+00
       6,    1.666667e+00,    5.000000e+00,    5.000000e+00
       7,   -1.666667e+00,    5.000000e+00,    5.000000e+00
       8,   -5.000000e+00,   -5.000000e+00,    5.000000e+00
       9,   -5.000000e+00,    1.666667e+00,    5.000000e+00
      10,   -5.000000e+00,   -1.666667e+00,    5.000000e+00
      11,   -1.666667e+00,   -5.000000e+00,    5.000000e+00
      12,    1.666667e+00,   -5.000000e+00,    5.000000e+00
      13,    1.598666e+00,    2.203075e-01,    5.000000e+00
      14,   -1.081938e+00,    2.295188e+00,    5.000000e+00
      15,   -2.049839e+00,   -5.040809e-01,    5.000000e+00
      16,   -9.221725e-02,   -2.668473e+00,    5.000000e+00
      17,    2.634623e+00,   -2.822966e+00,    5.000000e+00
      18,   -2.761745e+00,   -2.967844e+00,    5.000000e+00
      19,    5.000000e+00,    5.000000e+00,   -5.000000e+00
      20,    5.000000e+00,   -5.000000e+00,   -5.000000e+00
** ... 112 like lines cut
**
********************************** E L E M E N T S ****************************
*ELEMENT, TYPE=STRI3, ELSET=EB1
       1,      13,       6,      14
       2,      16,      13,      15
       3,       6,      13,       4
       4,       2,       6,       4
       5,      13,       3,       4
       6,       5,       9,       7
       7,      12,      16,      11
       8,       3,      17,       1
       9,       8,      11,      18
      10,      17,      13,      16
      11,      14,       9,      15
      12,       6,       7,      14
      13,       9,      10,      15
      14,       9,      14,       7
      15,      13,      14,      15
      16,      10,       8,      18
      17,      17,      12,       1
      18,      15,      10,      18
      19,       3,      13,      17
      20,      17,      16,      12
** ... 250 like lines cut
**
********************************** P R O P E R T I E S ************************
*SHELL SECTION, ELSET=EB1, SECTION INTEGRATION=SIMPSON, MATERIAL=Default-Steel
1.000000e+00
**
*END PART
**
**
**
********************************** E N D   P A R T S **********************************
**
**
********************************** A S S E M B L Y ************************************
**
*ASSEMBLY, NAME=ASSEMBLY1
**
*INSTANCE, NAME=Part-Default_1, PART=Part-Default
*END INSTANCE
**
*END ASSEMBLY
**
**
**
*MATERIAL, NAME = Default-Steel
*ELASTIC, TYPE=ISOTROPIC
2.068000e+05, 2.900000e-01
*DENSITY
7.000000e-06
*CONDUCTIVITY,TYPE=ISO
4.500000e-02
*SPECIFIC HEAT
5.000000e+02
**
**
************************************** H I S T O R Y *************************************
**
*PREPRINT
**
**************************************** S T E P 1 ***************************************
*STEP,INC=100,NAME=Default Set
**
*STATIC
1, 1, 1e-05, 1
**
**
**
**
*END STEP
