*HEADING
cubit(chen/Dropbox/work/ongoing/tetrssa/thanh/1_birth/1x1x1.inp): 08/24/2018: 14
version: 16.5
**
********************************** P A R T S **********************************
*PART, NAME=Part-Default
**
********************************** N O D E S **********************************
*NODE, NSET=ALLNODES
       1,    5.000000e-01,   -5.000000e-01,    5.000000e-01
       2,    5.000000e-01,   -5.000000e-01,   -5.000000e-01
       3,    5.000000e-01,    5.000000e-01,   -5.000000e-01
       4,    5.000000e-01,    5.000000e-01,    5.000000e-01
       5,   -5.000000e-01,    5.000000e-01,    5.000000e-01
       6,   -5.000000e-01,   -5.000000e-01,    5.000000e-01
       7,   -5.000000e-01,   -5.000000e-01,   -5.000000e-01
       8,   -5.000000e-01,    5.000000e-01,   -5.000000e-01
       9,    5.000000e-01,   -5.000000e-01,    4.000000e-01
      10,    5.000000e-01,   -5.000000e-01,    3.000000e-01
      11,    5.000000e-01,   -5.000000e-01,    2.000000e-01
      12,    5.000000e-01,   -5.000000e-01,    1.000000e-01
      13,    5.000000e-01,   -5.000000e-01,   -1.110223e-16
      14,    5.000000e-01,   -5.000000e-01,   -1.000000e-01
      15,    5.000000e-01,   -5.000000e-01,   -2.000000e-01
      16,    5.000000e-01,   -5.000000e-01,   -3.000000e-01
      17,    5.000000e-01,   -5.000000e-01,   -4.000000e-01
      18,    5.000000e-01,    4.000000e-01,   -5.000000e-01
      19,    5.000000e-01,    3.000000e-01,   -5.000000e-01
      20,    5.000000e-01,    2.000000e-01,   -5.000000e-01
** ... 2154 like lines cut
**
********************************** E L E M E N T S ****************************
*ELEMENT, TYPE=C3D4, ELSET=EB1
       1,     705,     706,     707,     708
       2,     709,     710,     711,     708
       3,     705,     710,     706,     708
       4,     712,     713,     714,     708
       5,     715,     716,     717,     718
       6,     714,     710,     709,     708
       7,     705,     719,     711,     708
       8,     720,     710,     705,     711
       9,     721,     720,     705,     711
      10,     705,     711,     710,     708
      11,     709,     710,     722,     711
      12,     719,     723,     711,     708
      13,     724,     725,     726,     727
      14,     726,     728,     729,     727
      15,     730,     731,     728,     727
      16,     724,     732,     733,     727
      17,     733,     734,     735,     727
      18,     730,     725,     736,     727
      19,     725,     735,     736,     727
      20,     737,     712,     738,     739
** ... 10780 like lines cut
**
********************************** P R O P E R T I E S ************************
*SOLID SECTION, ELSET=EB1, MATERIAL=Default-Steel
**
*END PART
**
**
**
********************************** E N D   P A R T S **********************************
**
**
********************************** A S S E M B L Y ************************************
**
*ASSEMBLY, NAME=ASSEMBLY1
**
*INSTANCE, NAME=Part-Default_1, PART=Part-Default
*END INSTANCE
**
*END ASSEMBLY
**
**
**
*MATERIAL, NAME = Default-Steel
*ELASTIC, TYPE=ISOTROPIC
2.068000e+05, 2.900000e-01
*DENSITY
7.000000e-06
*CONDUCTIVITY,TYPE=ISO
4.500000e-02
*SPECIFIC HEAT
5.000000e+02
**
**
************************************** H I S T O R Y *************************************
**
*PREPRINT
**
**************************************** S T E P 1 ***************************************
*STEP,INC=100,NAME=Default Set
**
*STATIC
1, 1, 1e-05, 1
**
**
**
**
*END STEP
