*HEADING
cubit(/Users/wchen/Works/iain/brick_40_4_4_2_comp.inp): 02/03/2010: 10:11:00
**
********************************** P A R T S **********************************
*PART, NAME=PART-DEFAULT
**
********************************** N O D E S **********************************
*NODE, NSET=ALLNODES
       1,   0.000000e+00,  -2.000000e+00,   2.000000e+00
       2,   0.000000e+00,   2.000000e+00,   2.000000e+00
       3,   0.000000e+00,  -1.000000e+00,   2.000000e+00
       4,   0.000000e+00,   0.000000e+00,   2.000000e+00
       5,   0.000000e+00,   1.000000e+00,   2.000000e+00
       6,  -2.000000e+01,   2.000000e+00,   2.000000e+00
       7,  -1.000000e+00,   2.000000e+00,   2.000000e+00
       8,  -2.000000e+00,   2.000000e+00,   2.000000e+00
       9,  -3.000000e+00,   2.000000e+00,   2.000000e+00
      10,  -4.000000e+00,   2.000000e+00,   2.000000e+00
      11,  -5.000000e+00,   2.000000e+00,   2.000000e+00
      12,  -6.000000e+00,   2.000000e+00,   2.000000e+00
      13,  -7.000000e+00,   2.000000e+00,   2.000000e+00
      14,  -8.000000e+00,   2.000000e+00,   2.000000e+00
      15,  -9.000000e+00,   2.000000e+00,   2.000000e+00
      16,  -1.000000e+01,   2.000000e+00,   2.000000e+00
      17,  -1.100000e+01,   2.000000e+00,   2.000000e+00
      18,  -1.200000e+01,   2.000000e+00,   2.000000e+00
      19,  -1.300000e+01,   2.000000e+00,   2.000000e+00
      20,  -1.400000e+01,   2.000000e+00,   2.000000e+00
** ... 1221 like lines cut
**
********************************** E L E M E N T S ****************************
*ELEMENT, TYPE=C3D4, ELSET=EB1
       1,     229,     378,     377,     379
       2,     229,     378,     379,     380
       3,     270,     380,     379,     381
       4,     270,     380,     381,     382
       5,     383,     384,     385,     386
       6,     387,     388,     389,     390
       7,     391,     392,     393,     394
       8,     389,     395,     390,     396
       9,     387,     390,     389,     395
      10,     390,     396,     397,     398
      11,     387,     398,     397,     399
      12,     377,     398,     390,     400
      13,     388,     390,     400,     401
      14,     402,     403,     404,     405
      15,      88,     406,     264,     407
      16,     390,     398,     408,     409
      17,     108,     411,     410,     412
      18,     389,     396,     390,     401
      19,     390,     401,     396,     409
      20,     413,     414,     415,     416
** ... 2501 like lines cut
*ELEMENT, TYPE=C3D4, ELSET=EB2
    2522,     848,     983,     982,     984
    2523,     848,     983,     984,     985
    2524,     889,     985,     984,     986
    2525,     889,     985,     986,     987
    2526,     988,     989,     990,     991
    2527,     753,     859,     858,     992
    2528,     858,     992,     993,     994
    2529,     997,     995,     927,     996
    2530,     900,     992,     859,     998
    2531,     900,     993,     992,     999
    2532,    1000,    1001,    1002,    1003
    2533,    1001,    1003,    1004,    1005
    2534,    1000,    1001,    1081,    1007
    2535,     691,    1008,     948,    1009
    2536,     691,    1001,    1008,    1009
    2537,     691,    1002,    1001,    1009
    2538,     929,    1008,    1005,    1009
    2539,     806,     832,    1010,    1011
    2540,     830,    1013,    1012,    1014
    2541,     805,    1015,    1011,    1016
** ... 2551 like lines cut
**
********************************** P R O P E R T I E S ************************
*SOLID SECTION, ELSET=EB1, MATERIAL=Default-Steel
*SOLID SECTION, ELSET=EB2, MATERIAL=Default-Steel
**
*END PART
**
**
**
********************************** E N D   P A R T S **********************************
**
**
********************************** A S S E M B L Y ************************************
**
*ASSEMBLY, NAME=ASSEMBLY1
**
*INSTANCE, NAME=PART-DEFAULT_1, PART=PART-DEFAULT
*END INSTANCE
**
*END ASSEMBLY
**
**
**
*MATERIAL, NAME = Default-Steel
*ELASTIC, TYPE=ISOTROPIC
2.068000e+05, 2.900000e-01
*DENSITY
7.000000e-06
*CONDUCTIVITY,TYPE=ISO
4.500000e-02
*SPECIFIC HEAT
5.000000e+02
**
**
************************************** H I S T O R Y *************************************
**
*PREPRINT
**
**************************************** S T E P 1 ***************************************
*STEP,NLGEOM,INC=100,NAME=Default Set
*STATIC
1., 1., 1e-05, 1.
*END STEP
