*HEADING
cubit(wchen/Dropbox (OIST)/Unit_Share/jules/sphere_2_blocks.inp): 04/15/2020: 13
version: 14.1
**
********************************** P A R T S **********************************
*PART, NAME=Part-Default
**
********************************** N O D E S **********************************
*NODE, ELSET=NODEGROUP1
      33,    0.000000e+00,    0.000000e+00,    5.000000e-01
      34,    0.000000e+00,    0.000000e+00,   -5.000000e-01
      35,    5.000000e-01,    0.000000e+00,    0.000000e+00
      36,    3.061862e-01,    3.061862e-01,    2.500000e-01
      37,    3.061862e-01,    3.061862e-01,   -2.500000e-01
      38,    3.974483e-10,    5.000000e-01,    0.000000e+00
      39,   -3.061862e-01,    3.061862e-01,    2.500000e-01
      40,   -3.061862e-01,    3.061862e-01,   -2.500000e-01
      41,   -5.000000e-01,    7.948967e-10,    0.000000e+00
      42,   -3.061862e-01,   -3.061862e-01,    2.500000e-01
      43,   -3.061862e-01,   -3.061862e-01,   -2.500000e-01
      44,   -1.192345e-09,   -5.000000e-01,    0.000000e+00
      45,    3.061862e-01,   -3.061862e-01,    2.500000e-01
      46,    3.061862e-01,   -3.061862e-01,   -2.500000e-01
      47,   -6.123234e-17,   -7.498799e-33,   -1.000000e+00
      48,   -6.264820e-01,   -7.672192e-17,   -7.794359e-01
      49,   -3.132410e-01,   -5.425493e-01,   -7.794359e-01
      50,    3.132410e-01,   -5.425493e-01,   -7.794359e-01
      51,    6.264820e-01,   -2.782139e-16,   -7.794359e-01
      52,    3.132410e-01,    5.425493e-01,   -7.794359e-01
** ... 20 like lines cut
*NODE, ELSET=NODEGROUP2
      73,   -4.387887e-01,    8.479279e-01,    2.974605e-01
      74,    4.794399e-01,    8.319675e-01,   -2.792266e-01
      75,    9.597299e-01,    2.125195e-02,   -2.801195e-01
      76,    5.093616e-01,   -8.141021e-01,   -2.789060e-01
      77,   -4.420488e-01,   -8.524311e-01,   -2.792025e-01
      78,   -4.432636e-01,    8.530197e-01,   -2.754536e-01
      79,   -9.577977e-01,   -7.649702e-02,   -2.770773e-01
      80,   -7.253093e-01,   -4.662852e-01,    5.064627e-01
      81,    3.052135e-02,   -8.618621e-01,    5.062234e-01
      82,    7.587008e-01,   -4.104439e-01,    5.058744e-01
      83,    7.419327e-01,    4.408861e-01,    5.051291e-01
      84,    1.124488e-02,    8.623845e-01,    5.061290e-01
      85,   -7.784593e-01,    4.338610e-01,    4.536140e-01
      86,    1.087356e-02,    8.705030e-01,   -4.920430e-01
      87,    7.488134e-01,    4.419941e-01,   -4.938823e-01
      88,    7.630607e-01,   -4.174992e-01,   -4.933890e-01
      89,    2.874208e-02,   -8.699635e-01,   -4.922778e-01
      90,   -7.314376e-01,   -4.732709e-01,   -4.909314e-01
      91,   -7.884069e-01,    4.390259e-01,   -4.308953e-01
      92,   -3.014133e-01,    5.348649e-01,   -1.853878e-01
** ... 9 like lines cut
**
********************************** E L E M E N T S ****************************
*ELEMENT, TYPE=C3D4, ELSET=TETGROUP1
       1,      36,      33,      42,      45
       2,      38,      36,      39,      37
       3,      37,      46,      43,      34
       4,      43,      42,      39,      41
       5,      41,      43,      40,      39
       6,      39,      37,      40,      38
       7,      44,      45,      46,      43
       8,      45,      42,      43,      44
       9,      36,      42,      43,      45
      10,      40,      37,      43,      34
      11,      43,      45,      46,      36
      12,      46,      36,      37,      43
      13,      36,      42,      39,      43
      14,      35,      36,      37,      46
      15,      37,      36,      39,      43
      16,      39,      33,      42,      36
      17,      43,      37,      40,      39
      18,      36,      45,      46,      35
*ELEMENT, TYPE=C3D4, ELSET=TETGROUP2
      19,      92,      40,      93,      91
      20,      92,      86,      94,      53
      21,      93,      66,      85,      39
      22,      92,      93,      40,      39
      23,      66,      92,      39,      93
      24,      92,      91,      93,      66
      25,      73,      61,      38,      92
      26,      61,      78,      92,      73
      27,      95,      87,      37,      62
      28,      96,      93,      39,      41
      29,      55,      42,      80,      96
      30,      56,      55,      42,      80
      31,      96,      65,      42,      80
      32,      96,      41,      65,      72
      33,      96,      33,      55,      42
      34,      96,      39,      33,      42
      35,      97,      57,      54,      56
      36,      69,      45,      81,      57
      37,      74,      36,      38,      37
      38,      97,      81,      68,      44
** ... 199 like lines cut
*ELEMENT, TYPE=STRI3, ELSET=TRIGROUP1
       0,      33,      36,      45
       1,      36,      38,      39
       2,      36,      37,      38
       3,      34,      37,      46
       4,      37,      38,      40
       5,      44,      45,      46
       6,      35,      36,      37
       7,      35,      37,      46
       8,      35,      36,      45
       9,      35,      45,      46
*ELEMENT, TYPE=STRI3, ELSET=TRIGROUP2
      10,      33,      42,      45
      11,      34,      43,      46
      12,      41,      42,      43
      13,      39,      41,      42
      14,      40,      41,      43
      15,      39,      40,      41
      16,      38,      39,      40
      17,      43,      44,      46
      18,      42,      44,      45
      19,      42,      43,      44
      20,      34,      37,      40
      21,      34,      40,      43
      22,      33,      39,      42
      23,      33,      36,      39
**
********************************** P R O P E R T I E S ************************
*SOLID SECTION, ELSET=EB3, MATERIAL=Default-Steel
*SOLID SECTION, ELSET=EB4, MATERIAL=Default-Steel
**
*END PART
**
**
**
********************************** E N D   P A R T S **********************************
**
**
********************************** A S S E M B L Y ************************************
**
*ASSEMBLY, NAME=ASSEMBLY1
**
*INSTANCE, NAME=Part-Default_1, PART=Part-Default
*END INSTANCE
**
*END ASSEMBLY
**
**
**
*MATERIAL, NAME = Default-Steel
*ELASTIC, TYPE=ISOTROPIC
2.068000e+05, 2.900000e-01
*DENSITY
7.000000e-06
*CONDUCTIVITY,TYPE=ISO
4.500000e-02
*SPECIFIC HEAT
5.000000e+02
**
**
************************************** H I S T O R Y *************************************
**
*PREPRINT
**
**************************************** S T E P 1 ***************************************
*STEP,INC=100,NAME=Default Set
**
*STATIC
1, 1, 1e-05, 1
**
**
**
**
*END STEP
