*HEADING
cubit(ALIDATION/REACTION_DIFFUSION/meshes/cube_1_1_1_73tets.inp): 02/02/2011: 14
**
********************************** P A R T S **********************************
*PART, NAME=PART-DEFAULT
**
********************************** N O D E S **********************************
*NODE, NSET=ALLNODES
   12888,   5.000000e-01,  -5.000000e-01,   5.000000e-01
   12889,   5.000000e-01,   5.000000e-01,   5.000000e-01
   12890,   5.000000e-01,   0.000000e+00,   5.000000e-01
   12891,  -5.000000e-01,   5.000000e-01,   5.000000e-01
   12892,   0.000000e+00,   5.000000e-01,   5.000000e-01
   12893,  -5.000000e-01,  -5.000000e-01,   5.000000e-01
   12894,  -5.000000e-01,   0.000000e+00,   5.000000e-01
   12895,   0.000000e+00,  -5.000000e-01,   5.000000e-01
   12896,   0.000000e+00,   1.666667e-01,   5.000000e-01
   12897,   5.000000e-01,   5.000000e-01,  -5.000000e-01
   12898,   5.000000e-01,  -5.000000e-01,  -5.000000e-01
   12899,   5.000000e-01,   0.000000e+00,  -5.000000e-01
   12900,  -5.000000e-01,  -5.000000e-01,  -5.000000e-01
   12901,   0.000000e+00,  -5.000000e-01,  -5.000000e-01
   12902,  -5.000000e-01,   5.000000e-01,  -5.000000e-01
   12903,  -5.000000e-01,   0.000000e+00,  -5.000000e-01
   12904,   0.000000e+00,   5.000000e-01,  -5.000000e-01
   12905,   0.000000e+00,  -1.666667e-01,  -5.000000e-01
   12906,  -5.000000e-01,  -5.000000e-01,   0.000000e+00
   12907,   5.000000e-01,  -5.000000e-01,   0.000000e+00
** ... 11 like lines cut
**
********************************** E L E M E N T S ****************************
*ELEMENT, TYPE=C3D4, ELSET=EB2
   64051,   12908,   12914,   12915,   12916
   64052,   12892,   12911,   12889,   12916
   64053,   12908,   12907,   12913,   12916
   64054,   12914,   12913,   12908,   12905
   64055,   12890,   12889,   12911,   12916
   64056,   12908,   12913,   12914,   12916
   64057,   12890,   12916,   12907,   12917
   64058,   12905,   12915,   12914,   12918
   64059,   12905,   12910,   12915,   12918
   64060,   12899,   12904,   12905,   12914
   64061,   12912,   12914,   12915,   12918
   64062,   12906,   12908,   12910,   12915
   64063,   12894,   12906,   12915,   12917
   64064,   12892,   12909,   12912,   12915
   64065,   12892,   12891,   12909,   12915
   64066,   12894,   12909,   12891,   12915
   64067,   12908,   12916,   12915,   12917
   64068,   12904,   12914,   12912,   12918
   64069,   12897,   12899,   12913,   12914
   64070,   12913,   12899,   12905,   12914
** ... 53 like lines cut
**
********************************** P R O P E R T I E S ************************
*SOLID SECTION, ELSET=EB2, MATERIAL=Default-Steel
**
*END PART
**
**
**
********************************** E N D   P A R T S **********************************
**
**
********************************** A S S E M B L Y ************************************
**
*ASSEMBLY, NAME=ASSEMBLY1
**
*INSTANCE, NAME=PART-DEFAULT_1, PART=PART-DEFAULT
*END INSTANCE
**
*END ASSEMBLY
**
**
**
*MATERIAL, NAME = Default-Steel
*ELASTIC, TYPE=ISOTROPIC
2.068000e+05, 2.900000e-01
*DENSITY
7.000000e-06
*CONDUCTIVITY,TYPE=ISO
4.500000e-02
*SPECIFIC HEAT
5.000000e+02
**
**
************************************** H I S T O R Y *************************************
**
*PREPRINT
**
**************************************** S T E P 1 ***************************************
*STEP,NLGEOM,INC=100,NAME=Default Set
*STATIC
1., 1., 1e-05, 1.
*END STEP
